         125
  
 Ar  -4.19778418472487       -2.88845680337081       -5.01226931934262     
 Ar  -4.25808630802857        2.63524956844671        1.04754535413660     
 Ar   5.31902598106804        1.78570262075848      -0.544452791007005     
 Ar   4.54832435233573        5.01792698422715       -2.52074018595867     
 Ar  -4.36954814360184       -4.99767624917454       -3.77994334950621     
 Ar  0.990264250377129      -0.289194180727638        4.54143474201039     
 Ar  0.112793548715093       -3.16808519243651        4.82982367075116     
 Ar  -1.72755056207525       -3.37365289899998        4.04305957869184     
 Ar   5.18893053816473      -0.783437382138701       -3.23999681010839     
 Ar  -1.57555692082341        3.67136140726423        5.01811724398948     
 Ar   2.15367502411375        2.12844150692321        3.31784351020915     
 Ar   2.90150440496391       0.111207224885021       -1.25631014344298     
 Ar   1.32197835031339        1.79057722954894        4.44987240092374     
 Ar   3.63535795022573        1.61586386010160       -4.42688795878219     
 Ar  -3.62290125640437       -3.97577532306400       -2.83211823963392     
 Ar   1.58053118725709        3.65634568195928       -3.31679879071777     
 Ar   2.40916171174471       -1.50679228591859       -4.18084548028600     
 Ar  0.936030433813923       -1.27959446434193        3.97933954138200     
 Ar  -1.14617060979816      -9.830865728399353E-002  0.360843257453757     
 Ar   2.34198640942384       -1.71211283477053       6.221790005062980E-002
 Ar -0.278718627210528        3.21422328426105       -1.97356520232967     
 Ar  -2.76706333557439        2.04405886526935       -4.51862209196208     
 Ar   3.40119796603951        4.37834806787642        1.38205243870057     
 Ar   5.35954954645828       -3.16054358551235       -4.85506751645720     
 Ar  -1.63631168026510       -5.37111551497498        1.23486553674931     
 Ar   1.05096280736483       -4.60408749500465       -1.02353577742474     
 Ar -0.531619446517412       -2.48187439091646        1.41761044210300     
 Ar  -5.10416921744080       -4.54180125340381        2.02262096995742     
 Ar  0.870153586466966       -3.72355723737290        2.03111822427488     
 Ar   2.51947017564023       0.331742440806741       -5.32585309791176     
 Ar  -4.34094212558803       -4.61130561344121       0.394581132554829     
 Ar  -1.88810427893739       -2.25974719125072      -0.156915949965200     
 Ar  -4.18995175496909        3.92277524240435       0.512401114942084     
 Ar -0.290761783294247        4.80870479526876       -3.40272310747743     
 Ar   4.44981316085603       0.387856825984266        2.53787004833242     
 Ar  -2.46166464344256        3.34248221853217       -2.49019365728740     
 Ar   1.70927242730310        5.23289126154720       0.729596509473521     
 Ar  -4.39967477160335       -1.24035797712876       -4.31127865196860     
 Ar   5.03499821820343       -1.69561598483816        2.31880331468700     
 Ar  -3.22351078088398        1.85896224236471       -3.04248950984385     
 Ar   3.52687574474685        5.12117912508877        3.02556788227547     
 Ar  7.876982978660040E-003 -0.111290717905412       -4.55785605988789     
 Ar  0.540408521002962        2.46361344704209       9.714218297612739E-002
 Ar  -3.87274786170784       -1.79469187087139       -5.33496480877963     
 Ar -0.554172659162594       -1.56528738406613       -4.07231880088853     
 Ar   1.34829002521342        3.84792499354245       -2.13536501395588     
 Ar  -4.75330152825005       -4.80055579311068      -0.798365974257244     
 Ar   2.70876417683289       -5.33145188184183       -1.12935058195114     
 Ar   1.65144311130293       -1.81582595443905       0.910071995917448     
 Ar -0.727876957288002        5.31472231657208        1.71264073573044     
 Ar  -3.69976478009499      -0.770781625663015       -2.65526511524270     
 Ar  -5.15991310378917      -0.916968323151632      -0.788476759272831     
 Ar   4.06148319480520       -1.09758318169452        3.96394191394983     
 Ar  0.411849021577898       -4.35588726527973       0.111317229989570     
 Ar  -5.21350165768631      -0.613393502976579       0.758561140214979     
 Ar   3.87922557369795       -1.98939773091131        2.31165603024220     
 Ar  -3.50812772427077        1.02573544227991       -4.37741397220481     
 Ar   1.64524399258945       -4.58066587490890       -4.79259458644666     
 Ar  -3.08178222439113       0.775225477468531        1.31821989515088     
 Ar   1.84234899226124       -4.03134302147631       -1.37085502260893     
 Ar  -1.31259088737509       -2.93998998013114       -4.30017288897689     
 Ar  -3.44158664031699        3.99733179207157        3.60434946262151     
 Ar  -4.79911619470533       -3.67326618429816       -1.36919707366718     
 Ar  -3.10508930805466        4.79747126046793       -3.20217091215489     
 Ar   2.75742537554033       -1.08518579016943        3.70752661794885     
 Ar   4.23458843109731        1.77758057500336        5.02635297212475     
 Ar   1.16664056285763       -4.95308617720159       -2.07711379521174     
 Ar  0.475713697947390        3.05145194697095        2.49545026642870     
 Ar   2.06417513446303        2.06291195723304       0.804966018022273     
 Ar  -2.57068718233805       -2.00512068169654       -5.13888670337212     
 Ar   2.78335485051387       0.239012701089359        1.19639978471789     
 Ar   4.47085717897425        3.07611429347146       1.252640782243965E-002
 Ar   3.84157010820246       0.276470049835625       -2.08354317124004     
 Ar  -4.93181351364979       -4.50910164613027        3.56830360029791     
 Ar  0.131445439177601       -2.12642377292496       -2.95066154584749     
 Ar  -5.09029467672605       -5.30758788362083       0.994565564025293     
 Ar   5.34869401057935        1.05164951817113        3.26819104151708     
 Ar -0.927748387812397        3.80467984692648        3.38729961747907     
 Ar   5.17821827125328        2.73869342162928        2.28547093969528     
 Ar  -3.87154673708330        2.21018006013811      -0.759746155214314     
 Ar  -3.54593581453278        3.07015115761851       -1.53053619086577     
 Ar   1.86353340044460      -0.286822899861549        2.00398876611325     
 Ar   3.27601047017145        3.26995541307930       -5.33728601828238     
 Ar   3.63092261160371        3.27538355182108       -4.38676553161664     
 Ar  -2.52489781121088       -1.64292842550745       -3.58751586322862     
 Ar   4.52648467004463        3.76475457121747       -2.37217506909652     
 Ar -0.290963916214647        2.70835673051522        4.53014785656500     
 Ar   5.07191200949513        3.78508411427400       -3.62192687106984     
 Ar   3.34036355904870        1.13938707579116       -2.85790557756219     
 Ar  -3.56457482167884        4.78932942518195       0.597221287109001     
 Ar  5.238685919466744E-002   5.04695254285620        1.00961844575408     
 Ar   4.40403569070930       -4.47318877282973        3.52486309457167     
 Ar  -1.45410893731762        2.63597218573538        1.62011351243983     
 Ar   4.44967222479252        5.07999485264099        1.04421093566659     
 Ar -0.640202666844824       -1.74968622353991        2.35173294031454     
 Ar  -4.62572731964576       -1.24290369583266        2.67023733121672     
 Ar -0.156655434160882        4.79293269796361        4.70251475142851     
 Ar   4.11964831703271        2.68862383122488       0.958191303502212     
 Ar  0.499083150996030       -2.77218934970722        2.14570285864186     
 Ar   4.09504009313832      -0.817212868529514       0.190681449716508     
 Ar  -4.81721142321820        1.49038260332934        5.06801581804289     
 Ar  -4.06611206453014        1.09569452609091       -1.39447224619588     
 Ar -0.142876208314568        3.49943714080304        1.71041963146335     
 Ar   4.99826641451355       0.257892045281816      -0.215604498181525     
 Ar   3.36746288018962       -2.40212608426441        3.35812713187425     
 Ar -0.821625887094008       0.988728110163750        4.48598113688443     
 Ar  -2.25136221197838        2.06217821413808       -2.19847300109689     
 Ar  -1.06734747076704        4.48992195861762       0.940752565596885     
 Ar  -5.27143317208877      -0.545746526949836        2.28325033781048     
 Ar -0.189840385743992        4.55509920124063        3.68937882767256     
 Ar -0.179298687047890       -5.19048045406209        3.23676593106471     
 Ar  5.493209993029093E-002  0.457788546719710        4.09105714175403     
 Ar  -1.18593952386615       -4.36632407201183        5.29460244534240     
 Ar   2.77442321804663        1.19564687086358        4.94289448437002     
 Ar  -4.88018309176437        5.18779416033811        3.22307769293543     
 Ar  0.899121251850381        2.47053850610582       -2.22050669213423     
 Ar  3.251355259120236E-002 -0.922802584586151       -1.44759383728994     
 Ar -0.980562413581147        4.26158684302792       -5.13864128295313     
 Ar   4.78796317937398       -1.44752673986725        3.32055167241810     
 Ar   4.44114933442799        3.80667903843828        2.62672461500388     
 Ar  -1.62115775729294        5.31914885660486       -4.79613176525460     
 Ar   3.77685677649118       -4.46033711056566      -0.547225637401373     
 Ar  -1.11512252266645       -2.65213139997248        5.09527672163733     
 Ar   2.76508468680023        1.35249928274512        3.31357239257607     
 Ar   5.06348109598133        5.09696644523696        3.66270937994529     
